20
                        
 C    6.171380    8.422068    9.870778
 C    6.920763    9.652493    9.864589
 C    8.294993    9.651702    9.865653
 C    9.042711    8.420056    9.872673
 C    8.292974    7.189992    9.866488
 C    6.919360    7.190684    9.865660
 C    4.749370    8.422456    9.886849
 C    3.996510    9.630563    9.894764
 C    3.997054    7.213648    9.901798
 C   10.464583    8.418730    9.889876
 C   11.218904    9.625894    9.898188
 C   11.215811    7.209150    9.902931
 N    3.379840   10.630098    9.886468
 N    3.383533    6.212530    9.900916
 N   11.836539   10.624791    9.889775
 N   11.829414    6.208022    9.899456
 H    6.383203   10.599599    9.860799
 H    8.833973   10.597875    9.862825
 H    8.830683    6.242772    9.863397
 H    6.380431    6.244335    9.861782
